                
<routes>
            <vType accel="1.0" decel="4.5" id="standard_car" length="5.0" minGap="2.5" maxSpeed="25" sigma="0.5" laneChangeMode="5242898"/>
            <!-- minGap=2.5 차량간의 간격 2.5로 생성. -->
            <!-- route definition (the car route) -->

            <route id="W_to_N" edges="W_in N_out"/>
            <route id="W_to_E" edges="W_in E_out"/>
            <route id="W_to_S" edges="W_in S_out"/>
            <route id="N_to_W" edges="N_in W_out"/>
            <route id="N_to_E" edges="N_in E_out"/>
            <route id="N_to_S" edges="N_in S_out"/>
            <route id="E_to_W" edges="E_in W_out"/>
            <route id="E_to_N" edges="E_in N_out"/>
            <route id="E_to_S" edges="E_in S_out"/>
            <route id="S_to_W" edges="S_in W_out"/>
            <route id="S_to_N" edges="S_in N_out"/>
            <route id="S_to_E" edges="S_in E_out"/>
    <vehicle id="vehicle_188" type="standard_car" route="N_to_S" depart="300.0" departLane="random" departSpeed="10" laneChangeMode="5242898" />
    <vehicle id="vehicle_604" type="standard_car" route="W_to_E" depart="300.0" departLane="random" departSpeed="10" laneChangeMode="5242898" />
    <vehicle id="vehicle_802" type="standard_car" route="W_to_E" depart="348.0" departLane="random" departSpeed="10" laneChangeMode="5242898" />
    <vehicle id="vehicle_76" type="standard_car" route="N_to_W" depart="380.0" departLane="random" departSpeed="10" laneChangeMode="5242898" />
    <vehicle id="vehicle_918" type="standard_car" route="S_to_E" depart="430.0" departLane="random" departSpeed="10" laneChangeMode="5242898" />
    <vehicle id="vehicle_893" type="standard_car" route="N_to_E" depart="463.0" departLane="random" departSpeed="10" laneChangeMode="5242898" />
    <vehicle id="vehicle_742" type="standard_car" route="E_to_N" depart="483.0" departLane="random" departSpeed="10" laneChangeMode="5242898" />
    <vehicle id="vehicle_77" type="standard_car" route="S_to_E" depart="487.0" departLane="random" departSpeed="10" laneChangeMode="5242898" />
    <vehicle id="vehicle_677" type="standard_car" route="S_to_W" depart="489.0" departLane="random" departSpeed="10" laneChangeMode="5242898" />
    <vehicle id="vehicle_319" type="standard_car" route="W_to_N" depart="493.0" departLane="random" departSpeed="10" laneChangeMode="5242898" />
    <vehicle id="vehicle_923" type="standard_car" route="N_to_W" depart="510.0" departLane="random" departSpeed="10" laneChangeMode="5242898" />
    <vehicle id="vehicle_699" type="standard_car" route="N_to_W" depart="524.0" departLane="random" departSpeed="10" laneChangeMode="5242898" />
    <vehicle id="vehicle_959" type="standard_car" route="W_to_E" depart="539.0" departLane="random" departSpeed="10" laneChangeMode="5242898" />
    <vehicle id="vehicle_496" type="standard_car" route="E_to_N" depart="557.0" departLane="random" departSpeed="10" laneChangeMode="5242898" />
    <vehicle id="vehicle_627" type="standard_car" route="E_to_W" depart="588.0" departLane="random" departSpeed="10" laneChangeMode="5242898" />
    <vehicle id="vehicle_981" type="standard_car" route="E_to_N" depart="589.0" departLane="random" departSpeed="10" laneChangeMode="5242898" />
    <vehicle id="vehicle_204" type="standard_car" route="W_to_S" depart="599.0" departLane="random" departSpeed="10" laneChangeMode="5242898" />
    <vehicle id="vehicle_921" type="standard_car" route="W_to_N" depart="603.0" departLane="random" departSpeed="10" laneChangeMode="5242898" />
    <vehicle id="vehicle_41" type="standard_car" route="E_to_W" depart="613.0" departLane="random" departSpeed="10" laneChangeMode="5242898" />
    <vehicle id="vehicle_108" type="standard_car" route="E_to_N" depart="629.0" departLane="random" departSpeed="10" laneChangeMode="5242898" />
    <vehicle id="vehicle_452" type="standard_car" route="E_to_W" depart="637.0" departLane="random" departSpeed="10" laneChangeMode="5242898" />
    <vehicle id="vehicle_950" type="standard_car" route="S_to_W" depart="647.0" departLane="random" departSpeed="10" laneChangeMode="5242898" />
    <vehicle id="vehicle_446" type="standard_car" route="N_to_W" depart="651.0" departLane="random" departSpeed="10" laneChangeMode="5242898" />
    <vehicle id="vehicle_686" type="standard_car" route="N_to_S" depart="667.0" departLane="random" departSpeed="10" laneChangeMode="5242898" />
    <vehicle id="vehicle_561" type="standard_car" route="W_to_E" depart="669.0" departLane="random" departSpeed="10" laneChangeMode="5242898" />
    <vehicle id="vehicle_736" type="standard_car" route="S_to_W" depart="672.0" departLane="random" departSpeed="10" laneChangeMode="5242898" />
    <vehicle id="vehicle_824" type="standard_car" route="S_to_N" depart="676.0" departLane="random" departSpeed="10" laneChangeMode="5242898" />
    <vehicle id="vehicle_98" type="standard_car" route="E_to_N" depart="679.0" departLane="random" departSpeed="10" laneChangeMode="5242898" />
    <vehicle id="vehicle_307" type="standard_car" route="W_to_N" depart="682.0" departLane="random" departSpeed="10" laneChangeMode="5242898" />
    <vehicle id="vehicle_97" type="standard_car" route="S_to_W" depart="683.0" departLane="random" departSpeed="10" laneChangeMode="5242898" />
    <vehicle id="vehicle_493" type="standard_car" route="W_to_S" depart="697.0" departLane="random" departSpeed="10" laneChangeMode="5242898" />
    <vehicle id="vehicle_84" type="standard_car" route="N_to_S" depart="710.0" departLane="random" departSpeed="10" laneChangeMode="5242898" />
    <vehicle id="vehicle_238" type="standard_car" route="E_to_W" depart="711.0" departLane="random" departSpeed="10" laneChangeMode="5242898" />
    <vehicle id="vehicle_142" type="standard_car" route="E_to_W" depart="721.0" departLane="random" departSpeed="10" laneChangeMode="5242898" />
    <vehicle id="vehicle_565" type="standard_car" route="E_to_N" depart="721.0" departLane="random" departSpeed="10" laneChangeMode="5242898" />
    <vehicle id="vehicle_942" type="standard_car" route="E_to_S" depart="727.0" departLane="random" departSpeed="10" laneChangeMode="5242898" />
    <vehicle id="vehicle_349" type="standard_car" route="E_to_N" depart="747.0" departLane="random" departSpeed="10" laneChangeMode="5242898" />
    <vehicle id="vehicle_226" type="standard_car" route="E_to_N" depart="753.0" departLane="random" departSpeed="10" laneChangeMode="5242898" />
    <vehicle id="vehicle_173" type="standard_car" route="W_to_S" depart="760.0" departLane="random" departSpeed="10" laneChangeMode="5242898" />
    <vehicle id="vehicle_737" type="standard_car" route="E_to_W" depart="769.0" departLane="random" departSpeed="10" laneChangeMode="5242898" />
    <vehicle id="vehicle_617" type="standard_car" route="W_to_E" depart="770.0" departLane="random" departSpeed="10" laneChangeMode="5242898" />
    <vehicle id="vehicle_157" type="standard_car" route="S_to_N" depart="782.0" departLane="random" departSpeed="10" laneChangeMode="5242898" />
    <vehicle id="vehicle_827" type="standard_car" route="N_to_S" depart="788.0" departLane="random" departSpeed="10" laneChangeMode="5242898" />
    <vehicle id="vehicle_258" type="standard_car" route="S_to_N" depart="812.0" departLane="random" departSpeed="10" laneChangeMode="5242898" />
    <vehicle id="vehicle_418" type="standard_car" route="N_to_S" depart="816.0" departLane="random" departSpeed="10" laneChangeMode="5242898" />
    <vehicle id="vehicle_235" type="standard_car" route="E_to_W" depart="826.0" departLane="random" departSpeed="10" laneChangeMode="5242898" />
    <vehicle id="vehicle_505" type="standard_car" route="W_to_N" depart="828.0" departLane="random" departSpeed="10" laneChangeMode="5242898" />
    <vehicle id="vehicle_597" type="standard_car" route="N_to_S" depart="828.0" departLane="random" departSpeed="10" laneChangeMode="5242898" />
    <vehicle id="vehicle_263" type="standard_car" route="E_to_S" depart="835.0" departLane="random" departSpeed="10" laneChangeMode="5242898" />
    <vehicle id="vehicle_793" type="standard_car" route="E_to_S" depart="839.0" departLane="random" departSpeed="10" laneChangeMode="5242898" />
    <vehicle id="vehicle_844" type="standard_car" route="W_to_S" depart="843.0" departLane="random" departSpeed="10" laneChangeMode="5242898" />
    <vehicle id="vehicle_691" type="standard_car" route="W_to_S" depart="849.0" departLane="random" departSpeed="10" laneChangeMode="5242898" />
    <vehicle id="vehicle_926" type="standard_car" route="N_to_W" depart="849.0" departLane="random" departSpeed="10" laneChangeMode="5242898" />
    <vehicle id="vehicle_305" type="standard_car" route="E_to_S" depart="856.0" departLane="random" departSpeed="10" laneChangeMode="5242898" />
    <vehicle id="vehicle_289" type="standard_car" route="W_to_N" depart="860.0" departLane="random" departSpeed="10" laneChangeMode="5242898" />
    <vehicle id="vehicle_17" type="standard_car" route="N_to_S" depart="867.0" departLane="random" departSpeed="10" laneChangeMode="5242898" />
    <vehicle id="vehicle_818" type="standard_car" route="W_to_N" depart="870.0" departLane="random" departSpeed="10" laneChangeMode="5242898" />
    <vehicle id="vehicle_251" type="standard_car" route="S_to_E" depart="883.0" departLane="random" departSpeed="10" laneChangeMode="5242898" />
    <vehicle id="vehicle_767" type="standard_car" route="S_to_W" depart="894.0" departLane="random" departSpeed="10" laneChangeMode="5242898" />
    <vehicle id="vehicle_198" type="standard_car" route="W_to_E" depart="897.0" departLane="random" departSpeed="10" laneChangeMode="5242898" />
    <vehicle id="vehicle_107" type="standard_car" route="S_to_N" depart="898.0" departLane="random" departSpeed="10" laneChangeMode="5242898" />
    <vehicle id="vehicle_449" type="standard_car" route="W_to_N" depart="898.0" departLane="random" departSpeed="10" laneChangeMode="5242898" />
    <vehicle id="vehicle_810" type="standard_car" route="E_to_N" depart="922.0" departLane="random" departSpeed="10" laneChangeMode="5242898" />
    <vehicle id="vehicle_159" type="standard_car" route="S_to_N" depart="925.0" departLane="random" departSpeed="10" laneChangeMode="5242898" />
    <vehicle id="vehicle_722" type="standard_car" route="S_to_E" depart="928.0" departLane="random" departSpeed="10" laneChangeMode="5242898" />
    <vehicle id="vehicle_529" type="standard_car" route="S_to_E" depart="931.0" departLane="random" departSpeed="10" laneChangeMode="5242898" />
    <vehicle id="vehicle_624" type="standard_car" route="W_to_E" depart="931.0" departLane="random" departSpeed="10" laneChangeMode="5242898" />
    <vehicle id="vehicle_554" type="standard_car" route="N_to_S" depart="934.0" departLane="random" departSpeed="10" laneChangeMode="5242898" />
    <vehicle id="vehicle_974" type="standard_car" route="S_to_W" depart="934.0" departLane="random" departSpeed="10" laneChangeMode="5242898" />
    <vehicle id="vehicle_483" type="standard_car" route="N_to_S" depart="935.0" departLane="random" departSpeed="10" laneChangeMode="5242898" />
    <vehicle id="vehicle_944" type="standard_car" route="S_to_E" depart="939.0" departLane="random" departSpeed="10" laneChangeMode="5242898" />
    <vehicle id="vehicle_852" type="standard_car" route="E_to_W" depart="942.0" departLane="random" departSpeed="10" laneChangeMode="5242898" />
    <vehicle id="vehicle_331" type="standard_car" route="S_to_W" depart="944.0" departLane="random" departSpeed="10" laneChangeMode="5242898" />
    <vehicle id="vehicle_90" type="standard_car" route="E_to_S" depart="951.0" departLane="random" departSpeed="10" laneChangeMode="5242898" />
    <vehicle id="vehicle_688" type="standard_car" route="W_to_N" depart="953.0" departLane="random" departSpeed="10" laneChangeMode="5242898" />
    <vehicle id="vehicle_374" type="standard_car" route="S_to_N" depart="957.0" departLane="random" departSpeed="10" laneChangeMode="5242898" />
    <vehicle id="vehicle_608" type="standard_car" route="S_to_E" depart="958.0" departLane="random" departSpeed="10" laneChangeMode="5242898" />
    <vehicle id="vehicle_46" type="standard_car" route="N_to_W" depart="963.0" departLane="random" departSpeed="10" laneChangeMode="5242898" />
    <vehicle id="vehicle_573" type="standard_car" route="W_to_E" depart="963.0" departLane="random" departSpeed="10" laneChangeMode="5242898" />
    <vehicle id="vehicle_739" type="standard_car" route="W_to_S" depart="972.0" departLane="random" departSpeed="10" laneChangeMode="5242898" />
    <vehicle id="vehicle_915" type="standard_car" route="E_to_W" depart="975.0" departLane="random" departSpeed="10" laneChangeMode="5242898" />
    <vehicle id="vehicle_164" type="standard_car" route="W_to_E" depart="979.0" departLane="random" departSpeed="10" laneChangeMode="5242898" />
    <vehicle id="vehicle_655" type="standard_car" route="S_to_E" depart="997.0" departLane="random" departSpeed="10" laneChangeMode="5242898" />
    <vehicle id="vehicle_772" type="standard_car" route="N_to_W" depart="998.0" departLane="random" departSpeed="10" laneChangeMode="5242898" />
    <vehicle id="vehicle_582" type="standard_car" route="E_to_W" depart="1000.0" departLane="random" departSpeed="10" laneChangeMode="5242898" />
    <vehicle id="vehicle_874" type="standard_car" route="S_to_N" depart="1003.0" departLane="random" departSpeed="10" laneChangeMode="5242898" />
    <vehicle id="vehicle_675" type="standard_car" route="W_to_S" depart="1006.0" departLane="random" departSpeed="10" laneChangeMode="5242898" />
    <vehicle id="vehicle_365" type="standard_car" route="S_to_N" depart="1008.0" departLane="random" departSpeed="10" laneChangeMode="5242898" />
    <vehicle id="vehicle_421" type="standard_car" route="W_to_E" depart="1010.0" departLane="random" departSpeed="10" laneChangeMode="5242898" />
    <vehicle id="vehicle_462" type="standard_car" route="N_to_W" depart="1014.0" departLane="random" departSpeed="10" laneChangeMode="5242898" />
    <vehicle id="vehicle_886" type="standard_car" route="E_to_N" depart="1015.0" departLane="random" departSpeed="10" laneChangeMode="5242898" />
    <vehicle id="vehicle_909" type="standard_car" route="E_to_N" depart="1029.0" departLane="random" departSpeed="10" laneChangeMode="5242898" />
    <vehicle id="vehicle_650" type="standard_car" route="N_to_E" depart="1032.0" departLane="random" departSpeed="10" laneChangeMode="5242898" />
    <vehicle id="vehicle_820" type="standard_car" route="W_to_E" depart="1033.0" departLane="random" departSpeed="10" laneChangeMode="5242898" />
    <vehicle id="vehicle_719" type="standard_car" route="N_to_S" depart="1035.0" departLane="random" departSpeed="10" laneChangeMode="5242898" />
    <vehicle id="vehicle_234" type="standard_car" route="N_to_W" depart="1039.0" departLane="random" departSpeed="10" laneChangeMode="5242898" />
    <vehicle id="vehicle_682" type="standard_car" route="S_to_E" depart="1045.0" departLane="random" departSpeed="10" laneChangeMode="5242898" />
    <vehicle id="vehicle_33" type="standard_car" route="N_to_E" depart="1048.0" departLane="random" departSpeed="10" laneChangeMode="5242898" />
    <vehicle id="vehicle_700" type="standard_car" route="W_to_E" depart="1049.0" departLane="random" departSpeed="10" laneChangeMode="5242898" />
    <vehicle id="vehicle_490" type="standard_car" route="N_to_E" depart="1054.0" departLane="random" departSpeed="10" laneChangeMode="5242898" />
    <vehicle id="vehicle_701" type="standard_car" route="W_to_S" depart="1056.0" departLane="random" departSpeed="10" laneChangeMode="5242898" />
    <vehicle id="vehicle_486" type="standard_car" route="E_to_W" depart="1065.0" departLane="random" departSpeed="10" laneChangeMode="5242898" />
    <vehicle id="vehicle_574" type="standard_car" route="N_to_S" depart="1065.0" departLane="random" departSpeed="10" laneChangeMode="5242898" />
    <vehicle id="vehicle_328" type="standard_car" route="W_to_N" depart="1072.0" departLane="random" departSpeed="10" laneChangeMode="5242898" />
    <vehicle id="vehicle_673" type="standard_car" route="W_to_S" depart="1076.0" departLane="random" departSpeed="10" laneChangeMode="5242898" />
    <vehicle id="vehicle_398" type="standard_car" route="N_to_W" depart="1079.0" departLane="random" departSpeed="10" laneChangeMode="5242898" />
    <vehicle id="vehicle_530" type="standard_car" route="N_to_S" depart="1079.0" departLane="random" departSpeed="10" laneChangeMode="5242898" />
    <vehicle id="vehicle_558" type="standard_car" route="W_to_E" depart="1079.0" departLane="random" departSpeed="10" laneChangeMode="5242898" />
    <vehicle id="vehicle_911" type="standard_car" route="N_to_S" depart="1081.0" departLane="random" departSpeed="10" laneChangeMode="5242898" />
    <vehicle id="vehicle_654" type="standard_car" route="S_to_E" depart="1083.0" departLane="random" departSpeed="10" laneChangeMode="5242898" />
    <vehicle id="vehicle_872" type="standard_car" route="N_to_E" depart="1085.0" departLane="random" departSpeed="10" laneChangeMode="5242898" />
    <vehicle id="vehicle_230" type="standard_car" route="W_to_S" depart="1086.0" departLane="random" departSpeed="10" laneChangeMode="5242898" />
    <vehicle id="vehicle_536" type="standard_car" route="N_to_S" depart="1087.0" departLane="random" departSpeed="10" laneChangeMode="5242898" />
    <vehicle id="vehicle_482" type="standard_car" route="S_to_N" depart="1091.0" departLane="random" departSpeed="10" laneChangeMode="5242898" />
    <vehicle id="vehicle_754" type="standard_car" route="E_to_W" depart="1095.0" departLane="random" departSpeed="10" laneChangeMode="5242898" />
    <vehicle id="vehicle_625" type="standard_car" route="N_to_E" depart="1106.0" departLane="random" departSpeed="10" laneChangeMode="5242898" />
    <vehicle id="vehicle_949" type="standard_car" route="W_to_E" depart="1107.0" departLane="random" departSpeed="10" laneChangeMode="5242898" />
    <vehicle id="vehicle_18" type="standard_car" route="W_to_N" depart="1109.0" departLane="random" departSpeed="10" laneChangeMode="5242898" />
    <vehicle id="vehicle_550" type="standard_car" route="E_to_N" depart="1109.0" departLane="random" departSpeed="10" laneChangeMode="5242898" />
    <vehicle id="vehicle_732" type="standard_car" route="W_to_E" depart="1112.0" departLane="random" departSpeed="10" laneChangeMode="5242898" />
    <vehicle id="vehicle_623" type="standard_car" route="N_to_E" depart="1116.0" departLane="random" departSpeed="10" laneChangeMode="5242898" />
    <vehicle id="vehicle_177" type="standard_car" route="S_to_N" depart="1120.0" departLane="random" departSpeed="10" laneChangeMode="5242898" />
    <vehicle id="vehicle_962" type="standard_car" route="S_to_E" depart="1121.0" departLane="random" departSpeed="10" laneChangeMode="5242898" />
    <vehicle id="vehicle_571" type="standard_car" route="S_to_N" depart="1127.0" departLane="random" departSpeed="10" laneChangeMode="5242898" />
    <vehicle id="vehicle_392" type="standard_car" route="S_to_N" depart="1130.0" departLane="random" departSpeed="10" laneChangeMode="5242898" />
    <vehicle id="vehicle_798" type="standard_car" route="E_to_W" depart="1133.0" departLane="random" departSpeed="10" laneChangeMode="5242898" />
    <vehicle id="vehicle_609" type="standard_car" route="W_to_S" depart="1135.0" departLane="random" departSpeed="10" laneChangeMode="5242898" />
    <vehicle id="vehicle_59" type="standard_car" route="W_to_E" depart="1143.0" departLane="random" departSpeed="10" laneChangeMode="5242898" />
    <vehicle id="vehicle_75" type="standard_car" route="W_to_N" depart="1145.0" departLane="random" departSpeed="10" laneChangeMode="5242898" />
    <vehicle id="vehicle_951" type="standard_car" route="W_to_S" depart="1146.0" departLane="random" departSpeed="10" laneChangeMode="5242898" />
    <vehicle id="vehicle_300" type="standard_car" route="E_to_W" depart="1148.0" departLane="random" departSpeed="10" laneChangeMode="5242898" />
    <vehicle id="vehicle_661" type="standard_car" route="S_to_W" depart="1153.0" departLane="random" departSpeed="10" laneChangeMode="5242898" />
    <vehicle id="vehicle_607" type="standard_car" route="S_to_E" depart="1156.0" departLane="random" departSpeed="10" laneChangeMode="5242898" />
    <vehicle id="vehicle_382" type="standard_car" route="E_to_W" depart="1158.0" departLane="random" departSpeed="10" laneChangeMode="5242898" />
    <vehicle id="vehicle_693" type="standard_car" route="W_to_S" depart="1160.0" departLane="random" departSpeed="10" laneChangeMode="5242898" />
    <vehicle id="vehicle_435" type="standard_car" route="W_to_S" depart="1162.0" departLane="random" departSpeed="10" laneChangeMode="5242898" />
    <vehicle id="vehicle_898" type="standard_car" route="N_to_S" depart="1163.0" departLane="random" departSpeed="10" laneChangeMode="5242898" />
    <vehicle id="vehicle_42" type="standard_car" route="E_to_W" depart="1165.0" departLane="random" departSpeed="10" laneChangeMode="5242898" />
    <vehicle id="vehicle_996" type="standard_car" route="N_to_S" depart="1165.0" departLane="random" departSpeed="10" laneChangeMode="5242898" />
    <vehicle id="vehicle_438" type="standard_car" route="E_to_W" depart="1166.0" departLane="random" departSpeed="10" laneChangeMode="5242898" />
    <vehicle id="vehicle_481" type="standard_car" route="W_to_E" depart="1166.0" departLane="random" departSpeed="10" laneChangeMode="5242898" />
    <vehicle id="vehicle_227" type="standard_car" route="N_to_S" depart="1181.0" departLane="random" departSpeed="10" laneChangeMode="5242898" />
    <vehicle id="vehicle_988" type="standard_car" route="N_to_W" depart="1182.0" departLane="random" departSpeed="10" laneChangeMode="5242898" />
    <vehicle id="vehicle_25" type="standard_car" route="N_to_E" depart="1185.0" departLane="random" departSpeed="10" laneChangeMode="5242898" />
    <vehicle id="vehicle_963" type="standard_car" route="N_to_S" depart="1186.0" departLane="random" departSpeed="10" laneChangeMode="5242898" />
    <vehicle id="vehicle_858" type="standard_car" route="E_to_N" depart="1190.0" departLane="random" departSpeed="10" laneChangeMode="5242898" />
    <vehicle id="vehicle_592" type="standard_car" route="N_to_S" depart="1192.0" departLane="random" departSpeed="10" laneChangeMode="5242898" />
    <vehicle id="vehicle_114" type="standard_car" route="S_to_W" depart="1193.0" departLane="random" departSpeed="10" laneChangeMode="5242898" />
    <vehicle id="vehicle_431" type="standard_car" route="N_to_S" depart="1195.0" departLane="random" departSpeed="10" laneChangeMode="5242898" />
    <vehicle id="vehicle_631" type="standard_car" route="S_to_W" depart="1195.0" departLane="random" departSpeed="10" laneChangeMode="5242898" />
    <vehicle id="vehicle_744" type="standard_car" route="W_to_S" depart="1200.0" departLane="random" departSpeed="10" laneChangeMode="5242898" />
    <vehicle id="vehicle_900" type="standard_car" route="W_to_E" depart="1214.0" departLane="random" departSpeed="10" laneChangeMode="5242898" />
    <vehicle id="vehicle_213" type="standard_car" route="N_to_W" depart="1216.0" departLane="random" departSpeed="10" laneChangeMode="5242898" />
    <vehicle id="vehicle_513" type="standard_car" route="W_to_S" depart="1220.0" departLane="random" departSpeed="10" laneChangeMode="5242898" />
    <vehicle id="vehicle_400" type="standard_car" route="S_to_N" depart="1222.0" departLane="random" departSpeed="10" laneChangeMode="5242898" />
    <vehicle id="vehicle_244" type="standard_car" route="N_to_E" depart="1224.0" departLane="random" departSpeed="10" laneChangeMode="5242898" />
    <vehicle id="vehicle_580" type="standard_car" route="S_to_N" depart="1229.0" departLane="random" departSpeed="10" laneChangeMode="5242898" />
    <vehicle id="vehicle_50" type="standard_car" route="N_to_E" depart="1231.0" departLane="random" departSpeed="10" laneChangeMode="5242898" />
    <vehicle id="vehicle_460" type="standard_car" route="E_to_N" depart="1236.0" departLane="random" departSpeed="10" laneChangeMode="5242898" />
    <vehicle id="vehicle_229" type="standard_car" route="N_to_W" depart="1237.0" departLane="random" departSpeed="10" laneChangeMode="5242898" />
    <vehicle id="vehicle_287" type="standard_car" route="N_to_W" depart="1237.0" departLane="random" departSpeed="10" laneChangeMode="5242898" />
    <vehicle id="vehicle_710" type="standard_car" route="S_to_E" depart="1243.0" departLane="random" departSpeed="10" laneChangeMode="5242898" />
    <vehicle id="vehicle_712" type="standard_car" route="N_to_E" depart="1243.0" departLane="random" departSpeed="10" laneChangeMode="5242898" />
    <vehicle id="vehicle_3" type="standard_car" route="N_to_S" depart="1246.0" departLane="random" departSpeed="10" laneChangeMode="5242898" />
    <vehicle id="vehicle_459" type="standard_car" route="N_to_E" depart="1246.0" departLane="random" departSpeed="10" laneChangeMode="5242898" />
    <vehicle id="vehicle_322" type="standard_car" route="N_to_W" depart="1248.0" departLane="random" departSpeed="10" laneChangeMode="5242898" />
    <vehicle id="vehicle_622" type="standard_car" route="E_to_N" depart="1250.0" departLane="random" departSpeed="10" laneChangeMode="5242898" />
    <vehicle id="vehicle_96" type="standard_car" route="S_to_W" depart="1252.0" departLane="random" departSpeed="10" laneChangeMode="5242898" />
    <vehicle id="vehicle_214" type="standard_car" route="E_to_N" depart="1256.0" departLane="random" departSpeed="10" laneChangeMode="5242898" />
    <vehicle id="vehicle_500" type="standard_car" route="E_to_W" depart="1256.0" departLane="random" departSpeed="10" laneChangeMode="5242898" />
    <vehicle id="vehicle_662" type="standard_car" route="E_to_N" depart="1256.0" departLane="random" departSpeed="10" laneChangeMode="5242898" />
    <vehicle id="vehicle_578" type="standard_car" route="W_to_S" depart="1260.0" departLane="random" departSpeed="10" laneChangeMode="5242898" />
    <vehicle id="vehicle_279" type="standard_car" route="S_to_E" depart="1266.0" departLane="random" departSpeed="10" laneChangeMode="5242898" />
    <vehicle id="vehicle_801" type="standard_car" route="N_to_S" depart="1267.0" departLane="random" departSpeed="10" laneChangeMode="5242898" />
    <vehicle id="vehicle_436" type="standard_car" route="N_to_W" depart="1268.0" departLane="random" departSpeed="10" laneChangeMode="5242898" />
    <vehicle id="vehicle_845" type="standard_car" route="E_to_N" depart="1268.0" departLane="random" departSpeed="10" laneChangeMode="5242898" />
    <vehicle id="vehicle_749" type="standard_car" route="N_to_E" depart="1278.0" departLane="random" departSpeed="10" laneChangeMode="5242898" />
    <vehicle id="vehicle_831" type="standard_car" route="E_to_S" depart="1278.0" departLane="random" departSpeed="10" laneChangeMode="5242898" />
    <vehicle id="vehicle_936" type="standard_car" route="S_to_N" depart="1278.0" departLane="random" departSpeed="10" laneChangeMode="5242898" />
    <vehicle id="vehicle_745" type="standard_car" route="N_to_S" depart="1280.0" departLane="random" departSpeed="10" laneChangeMode="5242898" />
    <vehicle id="vehicle_510" type="standard_car" route="S_to_W" depart="1284.0" departLane="random" departSpeed="10" laneChangeMode="5242898" />
    <vehicle id="vehicle_340" type="standard_car" route="S_to_W" depart="1287.0" departLane="random" departSpeed="10" laneChangeMode="5242898" />
    <vehicle id="vehicle_704" type="standard_car" route="N_to_S" depart="1288.0" departLane="random" departSpeed="10" laneChangeMode="5242898" />
    <vehicle id="vehicle_388" type="standard_car" route="W_to_E" depart="1289.0" departLane="random" departSpeed="10" laneChangeMode="5242898" />
    <vehicle id="vehicle_671" type="standard_car" route="E_to_N" depart="1290.0" departLane="random" departSpeed="10" laneChangeMode="5242898" />
    <vehicle id="vehicle_521" type="standard_car" route="E_to_S" depart="1294.0" departLane="random" departSpeed="10" laneChangeMode="5242898" />
    <vehicle id="vehicle_61" type="standard_car" route="S_to_E" depart="1300.0" departLane="random" departSpeed="10" laneChangeMode="5242898" />
    <vehicle id="vehicle_27" type="standard_car" route="E_to_W" depart="1301.0" departLane="random" departSpeed="10" laneChangeMode="5242898" />
    <vehicle id="vehicle_163" type="standard_car" route="E_to_N" depart="1302.0" departLane="random" departSpeed="10" laneChangeMode="5242898" />
    <vehicle id="vehicle_797" type="standard_car" route="W_to_E" depart="1303.0" departLane="random" departSpeed="10" laneChangeMode="5242898" />
    <vehicle id="vehicle_599" type="standard_car" route="E_to_W" depart="1305.0" departLane="random" departSpeed="10" laneChangeMode="5242898" />
    <vehicle id="vehicle_385" type="standard_car" route="W_to_E" depart="1307.0" departLane="random" departSpeed="10" laneChangeMode="5242898" />
    <vehicle id="vehicle_545" type="standard_car" route="E_to_W" depart="1311.0" departLane="random" departSpeed="10" laneChangeMode="5242898" />
    <vehicle id="vehicle_171" type="standard_car" route="W_to_N" depart="1312.0" departLane="random" departSpeed="10" laneChangeMode="5242898" />
    <vehicle id="vehicle_808" type="standard_car" route="N_to_E" depart="1314.0" departLane="random" departSpeed="10" laneChangeMode="5242898" />
    <vehicle id="vehicle_325" type="standard_car" route="E_to_S" depart="1315.0" departLane="random" departSpeed="10" laneChangeMode="5242898" />
    <vehicle id="vehicle_860" type="standard_car" route="S_to_N" depart="1318.0" departLane="random" departSpeed="10" laneChangeMode="5242898" />
    <vehicle id="vehicle_724" type="standard_car" route="E_to_S" depart="1320.0" departLane="random" departSpeed="10" laneChangeMode="5242898" />
    <vehicle id="vehicle_967" type="standard_car" route="E_to_N" depart="1321.0" departLane="random" departSpeed="10" laneChangeMode="5242898" />
    <vehicle id="vehicle_150" type="standard_car" route="S_to_E" depart="1323.0" departLane="random" departSpeed="10" laneChangeMode="5242898" />